306
H2O_pimd_S01_step01_cc3
  O    27.804700000000    17.156100000000    31.253200000000   
  H    28.111100000000    16.513800000000    30.591000000000   
  H    27.727900000000    17.995700000000    30.785500000000   
  O    28.780700000000    15.583800000000    29.477400000000   
  H    29.029700000000    14.684600000000    29.875500000000   
  H    29.729800000000    16.029300000000    29.199200000000   
  O    26.160500000000    15.798340000000    32.954100000000   
  H    26.589200000000    16.379100000000    32.336300000000   
  H    26.827800000000    15.750250000000    33.710100000000   
  O    27.425110000000    19.688400000000    30.211900000000   
  H    26.917380000000    20.075500000000    29.463200000000   
  H    27.468120000000    20.472400000000    30.841400000000   
  O    30.386500000000    17.309900000000    32.569100000000   
  H    29.590300000000    17.400900000000    31.972300000000   
  H    31.168400000000    17.253500000000    32.026700000000   
  O    24.904400000000    18.935600000000    31.732800000000   
  H    25.731840000000    18.759200000000    31.212500000000   
  H    24.733860000000    19.854700000000    31.648800000000   
  O    26.604800000000    13.700600000000    31.193800000000   
  H    25.870700000000    13.072200000000    31.433500000000   
  H    26.576600000000    14.489300000000    31.767000000000   
  O    29.673500000000    19.421800000000    28.165700000000   
  H    29.221200000000    18.911700000000    27.491100000000   
  H    29.032200000000    19.671600000000    28.896300000000   
  O    25.795400000000    17.426700000000    27.714400000000   
  H    24.948200000000    17.019300000000    27.535000000000   
  H    26.349100000000    16.606400000000    28.028900000000   
  O    31.300900000000    17.037800000000    28.845800000000   
  H    30.880700000000    17.930700000000    28.668100000000   
  H    31.938700000000    17.112900000000    29.585500000000   
  O    26.011300000000    13.880600000000    28.736900000000   
  H    26.744100000000    14.221600000000    28.169300000000   
  H    26.392700000000    13.944000000000    29.688800000000   
  O    28.546620000000    16.012800000000    34.624900000000   
  H    28.164240000000    15.565400000000    35.442800000000   
  H    28.758980000000    16.895300000000    34.947200000000   
  O    27.979900000000    14.675300000000    27.005700000000   
  H    28.527900000000    14.919300000000    27.831400000000   
  H    28.175200000000    13.770900000000    26.733700000000   
  O    26.253800000000    19.944300000000    34.052800000000   
  H    25.582600000000    19.454000000000    33.514300000000   
  H    25.660700000000    20.153600000000    34.803700000000   
  O    29.821000000000    13.302800000000    30.363500000000   
  H    29.363400000000    12.859100000000    31.079700000000   
  H    30.712100000000    13.010700000000    30.314100000000   
  O    23.057100000000    16.985980000000    31.085000000000   
  H    23.547900000000    17.848900000000    31.071700000000   
  H    23.087300000000    16.580990000000    31.980600000000   
  O    28.013900000000    21.517800000000    32.492700000000   
  H    27.499400000000    22.324800000000    32.337600000000   
  H    27.422900000000    21.026500000000    33.073900000000   
  O    27.863600000000    18.446300000000    26.379200000000   
  H    27.515500000000    18.902800000000    25.597400000000   
  H    27.068300000000    18.205600000000    26.885700000000   
  O    23.528300000000    15.083400000000    28.999300000000   
  H    24.456000000000    14.848700000000    28.771500000000   
  H    23.578600000000    15.638200000000    29.754900000000   
  O    30.731900000000    18.718000000000    34.963200000000   
  H    30.721900000000    18.168600000000    34.105400000000   
  H    30.705500000000    19.631400000000    34.673100000000   
  O    30.705600000000    14.467800000000    34.580200000000   
  H    31.483600000000    14.681900000000    34.088100000000   
  H    29.932000000000    15.124100000000    34.481300000000   
  O    23.534900000000    16.166900000000    33.647800000000   
  H    23.330800000000    16.690200000000    34.496600000000   
  H    24.551400000000    16.139300000000    33.562400000000   
  O    32.907100000000    16.985980000000    31.085000000000   
  H    33.397900000000    17.848900000000    31.071700000000   
  H    32.937300000000    16.580990000000    31.980600000000   
  O    26.162600000000    21.103000000000    28.018100000000   
  H    25.835400000000    22.004300000000    28.146300000000   
  H    25.441200000000    20.656200000000    27.537200000000   
  O    27.863600000000    18.446300000000    36.229200000000   
  H    27.515500000000    18.902800000000    35.447400000000   
  H    27.068300000000    18.205600000000    36.735700000000   
  O    30.947700000000    14.227800000000    27.645200000000   
  H    31.557800000000    14.871500000000    27.960200000000   
  H    30.937700000000    14.437300000000    26.702300000000   
  O    24.829600000000    21.573500000000    31.507800000000   
  H    24.098400000000    21.854600000000    30.890500000000   
  H    24.374900000000    21.748000000000    32.322200000000   
  O    28.013900000000    11.667800000000    32.492700000000   
  H    27.499400000000    12.474800000000    32.337600000000   
  H    27.422900000000    11.176500000000    33.073900000000   
  O    28.546620000000    16.012800000000    24.774900000000   
  H    28.164240000000    15.565400000000    25.592800000000   
  H    28.758980000000    16.895300000000    25.097200000000   
  O    30.189200000000    21.427500000000    34.158500000000   
  H    30.274100000000    22.338700000000    34.489900000000   
  H    29.481090000000    21.437900000000    33.491400000000   
  O    29.821000000000    23.152800000000    30.363500000000   
  H    29.363400000000    22.709100000000    31.079700000000   
  H    30.712100000000    22.860700000000    30.314100000000   
  O    32.840500000000    17.669300000000    26.548000000000   
  H    32.138600000000    17.994400000000    25.947400000000   
  H    32.364200000000    17.379900000000    27.340700000000   
  O    31.563800000000    21.483600000000    27.714800000000   
  H    30.793700000000    20.929500000000    27.783700000000   
  H    31.203400000000    22.388800000000    27.878700000000   
  O    33.378300000000    15.083400000000    28.999300000000   
  H    34.306000000000    14.848700000000    28.771500000000   
  H    33.428600000000    15.638200000000    29.754900000000   
  O    24.829600000000    11.723500000000    31.507800000000   
  H    24.098400000000    12.004600000000    30.890500000000   
  H    24.374900000000    11.898000000000    32.322200000000   
  O    27.908190000000    21.890300000000    26.110700000000   
  H    28.385460000000    21.333000000000    25.502800000000   
  H    27.515590000000    21.410600000000    26.837200000000   
  O    30.189200000000    11.577500000000    34.158500000000   
  H    30.274100000000    12.488700000000    34.489900000000   
  H    29.481090000000    11.587900000000    33.491400000000   
  O    33.384900000000    16.166900000000    33.647800000000   
  H    33.180800000000    16.690200000000    34.496600000000   
  H    34.401400000000    16.139300000000    33.562400000000   
  O    26.604800000000    23.550600000000    31.193800000000   
  H    25.870700000000    22.922200000000    31.433500000000   
  H    26.576600000000    24.339300000000    31.767000000000   
  O    21.450900000000    17.037800000000    28.845800000000   
  H    21.030700000000    17.930700000000    28.668100000000   
  H    22.088700000000    17.112900000000    29.585500000000   
  O    27.908190000000    21.890300000000    35.960700000000   
  H    28.385460000000    21.333000000000    35.352800000000   
  H    27.515590000000    21.410600000000    36.687200000000   
  O    22.926200000000    12.744000000000    30.066500000000   
  H    22.742900000000    12.113300000000    29.315800000000   
  H    23.241800000000    13.567200000000    29.536100000000   
  O    32.776200000000    12.744000000000    30.066500000000   
  H    32.592900000000    12.113300000000    29.315800000000   
  H    33.091800000000    13.567200000000    29.536100000000   
  O    32.830100000000    21.150900000000    33.487500000000   
  H    31.853700000000    21.397200000000    33.528000000000   
  H    33.032300000000    20.730500000000    34.333500000000   
  O    23.919900000000    20.291700000000    26.376400000000   
  H    23.669800000000    19.308310000000    26.497800000000   
  H    23.243800000000    20.863200000000    26.810600000000   
  O    27.979900000000    14.675300000000    36.855700000000   
  H    28.527900000000    14.919300000000    37.681400000000   
  H    28.175200000000    13.770900000000    36.583700000000   
  O    22.990500000000    17.669300000000    26.548000000000   
  H    22.288600000000    17.994400000000    25.947400000000   
  H    22.514200000000    17.379900000000    27.340700000000   
  O    26.162600000000    11.253000000000    28.018100000000   
  H    25.835400000000    12.154300000000    28.146300000000   
  H    25.441200000000    10.806200000000    27.537200000000   
  O    30.731900000000    18.718000000000    25.113200000000   
  H    30.721900000000    18.168600000000    24.255400000000   
  H    30.705500000000    19.631400000000    24.823100000000   
  O    27.425110000000     9.838400000000    30.211900000000   
  H    26.917380000000    10.225500000000    29.463200000000   
  H    27.468120000000    10.622400000000    30.841400000000   
  O    22.980100000000    21.150900000000    33.487500000000   
  H    22.003700000000    21.397200000000    33.528000000000   
  H    23.182300000000    20.730500000000    34.333500000000   
  O    25.795400000000    17.426700000000    37.564400000000   
  H    24.948200000000    17.019300000000    37.385000000000   
  H    26.349100000000    16.606400000000    37.878900000000   
  O    31.563800000000    11.633600000000    27.714800000000   
  H    30.793700000000    11.079500000000    27.783700000000   
  H    31.203400000000    12.538800000000    27.878700000000   
  O    26.011300000000    23.730600000000    28.736900000000   
  H    26.744100000000    24.071600000000    28.169300000000   
  H    26.392700000000    23.794000000000    29.688800000000   
  O    32.840500000000    17.669300000000    36.398000000000   
  H    32.138600000000    17.994400000000    35.797400000000   
  H    32.364200000000    17.379900000000    37.190700000000   
  O    27.908190000000    12.040300000000    26.110700000000   
  H    28.385460000000    11.483000000000    25.502800000000   
  H    27.515590000000    11.560600000000    26.837200000000   
  O    30.705600000000    14.467800000000    24.730200000000   
  H    31.483600000000    14.681900000000    24.238100000000   
  H    29.932000000000    15.124100000000    24.631300000000   
  O    34.754400000000    18.935600000000    31.732800000000   
  H    35.581840000000    18.759200000000    31.212500000000   
  H    34.583860000000    19.854700000000    31.648800000000   
  O    26.253800000000    19.944300000000    24.202800000000   
  H    25.582600000000    19.454000000000    23.664300000000   
  H    25.660700000000    20.153600000000    24.953700000000   
  O    22.926200000000    22.594000000000    30.066500000000   
  H    22.742900000000    21.963300000000    29.315800000000   
  H    23.241800000000    23.417200000000    29.536100000000   
  O    32.776200000000    22.594000000000    30.066500000000   
  H    32.592900000000    21.963300000000    29.315800000000   
  H    33.091800000000    23.417200000000    29.536100000000   
  O    20.536500000000    17.309900000000    32.569100000000   
  H    19.740300000000    17.400900000000    31.972300000000   
  H    21.318400000000    17.253500000000    32.026700000000   
  O    27.908190000000    12.040300000000    35.960700000000   
  H    28.385460000000    11.483000000000    35.352800000000   
  H    27.515590000000    11.560600000000    36.687200000000   
  O    23.919900000000    20.291700000000    36.226400000000   
  H    23.669800000000    19.308310000000    36.347800000000   
  H    23.243800000000    20.863200000000    36.660600000000   
  O    29.673500000000    19.421800000000    38.015700000000   
  H    29.221200000000    18.911700000000    37.341100000000   
  H    29.032200000000    19.671600000000    38.746300000000   
  O    33.769900000000    20.291700000000    26.376400000000   
  H    33.519800000000    19.308310000000    26.497800000000   
  H    33.093800000000    20.863200000000    26.810600000000   
  O    30.947700000000    14.227800000000    37.495200000000   
  H    31.557800000000    14.871500000000    37.810200000000   
  H    30.937700000000    14.437300000000    36.552300000000   
  O    22.990500000000    17.669300000000    36.398000000000   
  H    22.288600000000    17.994400000000    35.797400000000   
  H    22.514200000000    17.379900000000    37.190700000000   
  O    34.679600000000    21.573500000000    31.507800000000   
  H    33.948400000000    21.854600000000    30.890500000000   
  H    34.224900000000    21.748000000000    32.322200000000   
  O    21.097700000000    14.227800000000    27.645200000000   
  H    21.707800000000    14.871500000000    27.960200000000   
  H    21.087700000000    14.437300000000    26.702300000000   
  O    26.160500000000    15.798340000000    23.104100000000   
  H    26.589200000000    16.379100000000    22.486300000000   
  H    26.827800000000    15.750250000000    23.860100000000   
  O    27.979900000000    24.525300000000    27.005700000000   
  H    28.527900000000    24.769300000000    27.831400000000   
  H    28.175200000000    23.620900000000    26.733700000000   
  O    23.534900000000    16.166900000000    23.797800000000   
  H    23.330800000000    16.690200000000    24.646600000000   
  H    24.551400000000    16.139300000000    23.712400000000   
  O    20.881900000000    18.718000000000    34.963200000000   
  H    20.871900000000    18.168600000000    34.105400000000   
  H    20.855500000000    19.631400000000    34.673100000000   
  O    32.830100000000    11.300900000000    33.487500000000   
  H    31.853700000000    11.547200000000    33.528000000000   
  H    33.032300000000    10.880500000000    34.333500000000   
  O    26.253800000000    10.094300000000    34.052800000000   
  H    25.582600000000     9.604000000000    33.514300000000   
  H    25.660700000000    10.303600000000    34.803700000000   
  O    20.855600000000    14.467800000000    34.580200000000   
  H    21.633600000000    14.681900000000    34.088100000000   
  H    20.082000000000    15.124100000000    34.481300000000   
  O    26.162600000000    21.103000000000    37.868100000000   
  H    25.835400000000    22.004300000000    37.996300000000   
  H    25.441200000000    20.656200000000    37.387200000000   
  O    28.780700000000    25.433800000000    29.477400000000   
  H    29.029700000000    24.534600000000    29.875500000000   
  H    29.729800000000    25.879300000000    29.199200000000   
  O    35.645400000000    17.426700000000    27.714400000000   
  H    34.798200000000    17.019300000000    27.535000000000   
  H    36.199100000000    16.606400000000    28.028900000000   
  O    29.673500000000     9.571800000000    28.165700000000   
  H    29.221200000000     9.061700000000    27.491100000000   
  H    29.032200000000     9.821600000000    28.896300000000   
  O    30.189200000000    21.427500000000    24.308500000000   
  H    30.274100000000    22.338700000000    24.639900000000   
  H    29.481090000000    21.437900000000    23.641400000000   
  O    34.679600000000    11.723500000000    31.507800000000   
  H    33.948400000000    12.004600000000    30.890500000000   
  H    34.224900000000    11.898000000000    32.322200000000   
  O    24.904400000000     9.085600000000    31.732800000000   
  H    25.731840000000     8.909200000000    31.212500000000   
  H    24.733860000000    10.004700000000    31.648800000000   
  O    33.769900000000    20.291700000000    36.226400000000   
  H    33.519800000000    19.308310000000    36.347800000000   
  H    33.093800000000    20.863200000000    36.660600000000   
  O    22.980100000000    11.300900000000    33.487500000000   
  H    22.003700000000    11.547200000000    33.528000000000   
  H    23.182300000000    10.880500000000    34.333500000000   
  O    21.713800000000    21.483600000000    27.714800000000   
  H    20.943700000000    20.929500000000    27.783700000000   
  H    21.353400000000    22.388800000000    27.878700000000   
  O    30.947700000000    24.077800000000    27.645200000000   
  H    31.557800000000    24.721500000000    27.960200000000   
  H    30.937700000000    24.287300000000    26.702300000000   
  O    26.011300000000    13.880600000000    38.586900000000   
  H    26.744100000000    14.221600000000    38.019300000000   
  H    26.392700000000    13.944000000000    39.538800000000   
  O    30.705600000000    24.317800000000    34.580200000000   
  H    31.483600000000    24.531900000000    34.088100000000   
  H    29.932000000000    24.974100000000    34.481300000000   
  O    31.563800000000    21.483600000000    37.564800000000   
  H    30.793700000000    20.929500000000    37.633700000000   
  H    31.203400000000    22.388800000000    37.728700000000   
  O    31.300900000000    17.037800000000    38.695800000000   
  H    30.880700000000    17.930700000000    38.518100000000   
  H    31.938700000000    17.112900000000    39.435500000000   
  O    28.780700000000    15.583800000000    39.327400000000   
  H    29.029700000000    14.684600000000    39.725500000000   
  H    29.729800000000    16.029300000000    39.049200000000   
  O    30.189200000000    11.577500000000    24.308500000000   
  H    30.274100000000    12.488700000000    24.639900000000   
  H    29.481090000000    11.587900000000    23.641400000000   
  O    19.971000000000    13.302800000000    30.363500000000   
  H    19.513400000000    12.859100000000    31.079700000000   
  H    20.862100000000    13.010700000000    30.314100000000   
  O    18.930700000000    15.583800000000    29.477400000000   
  H    19.179700000000    14.684600000000    29.875500000000   
  H    19.879800000000    16.029300000000    29.199200000000   
  O    36.010500000000    15.798340000000    32.954100000000   
  H    36.439200000000    16.379100000000    32.336300000000   
  H    36.677800000000    15.750250000000    33.710100000000   
  O    36.103800000000    19.944300000000    34.052800000000   
  H    35.432600000000    19.454000000000    33.514300000000   
  H    35.510700000000    20.153600000000    34.803700000000   
  O    30.386500000000    17.309900000000    22.719100000000   
  H    29.590300000000    17.400900000000    22.122300000000   
  H    31.168400000000    17.253500000000    22.176700000000   
  O    23.528300000000    24.933400000000    28.999300000000   
  H    24.456000000000    24.698700000000    28.771500000000   
  H    23.578600000000    25.488200000000    29.754900000000   
  O    26.160500000000    25.648340000000    32.954100000000   
  H    26.589200000000    26.229100000000    32.336300000000   
  H    26.827800000000    25.600250000000    33.710100000000   
  O    33.384900000000    16.166900000000    23.797800000000   
  H    33.180800000000    16.690200000000    24.646600000000   
  H    34.401400000000    16.139300000000    23.712400000000   
